LTspice 24.1.7 for Windows
Circuit: D:\GitHub Projects\Sound-Reactive-Disco-Light-System\Design Files\Simulation\Schematic.net
Start Time: Sat Jun 27 18:56:07 2026
solver = Normal
Maximum thread count: 12
tnom = 27
temp = 27
method = trap
Direct Newton iteration failed to find .op point.  (Use ".option noopiter" to skip.)
Starting Gmin stepping
Increasing initial diagonal Gmin to 100
Gmin = 100
Gmin = 10.7374
Gmin = 1.15292
Gmin = 0.123794
Gmin = 0.0132923
Gmin = 0.00142725
Gmin = 0.00015325
Gmin = 1.6455e-05
Gmin = 1.76685e-06
Gmin = 1.89714e-07
Gmin = 2.03704e-08
Gmin = 2.18725e-09
Gmin = 2.34854e-10
Gmin = 2.52173e-11
Gmin = 2.70769e-12
Gmin = 2.90735e-13
Gmin = 0
Gmin stepping succeeded in finding the operating point.

Total elapsed time: 6.493 seconds.

Files loaded:
D:\GitHub Projects\Sound-Reactive-Disco-Light-System\Design Files\Simulation\Schematic.net
C:\Users\ASUS\AppData\Local\LTspice\lib\cmp\standard.dio
C:\Users\ASUS\AppData\Local\LTspice\lib\sub\UniversalOpAmp2.lib

